* SPICE3 file created from user_analog_project_wrapper.ext - technology: sky130A

.subckt sky130_fd_pr__pfet_01v8_AC5Z8B a_159_n100# li_217_n290# li_n261_n290# li_229_174#
+ a_n221_n74# a_n129_n100# a_n159_n152# li_225_n726# a_n33_n100# w_n261_n210# li_n261_174#
+ li_n261_n726# VSUBS
X0 a_n129_n100# a_n159_n152# a_n33_n100# w_n261_n210# sky130_fd_pr__pfet_01v8 ad=6.6e+11p pd=5.32e+06u as=3.3e+11p ps=2.66e+06u w=1e+06u l=150000u
X1 a_n33_n100# a_n159_n152# a_n129_n100# w_n261_n210# sky130_fd_pr__pfet_01v8 ad=0p pd=0u as=0p ps=0u w=1e+06u l=150000u
X2 a_159_n100# a_n159_n152# a_n129_n100# w_n261_n210# sky130_fd_pr__pfet_01v8 ad=3.048e+11p pd=2.62e+06u as=0p ps=0u w=1e+06u l=150000u
X3 a_n129_n100# a_n159_n152# a_n221_n74# w_n261_n210# sky130_fd_pr__pfet_01v8 ad=0p pd=0u as=3.048e+11p ps=2.62e+06u w=1e+06u l=150000u
.ends

.subckt sky130_fd_pr__nfet_01v8_XJTKXQ a_33_n122# a_n63_n122# a_63_n100# a_n125_n74#
+ a_n33_n100# VSUBS
X0 a_63_n100# a_33_n122# a_n33_n100# VSUBS sky130_fd_pr__nfet_01v8 ad=3.048e+11p pd=2.62e+06u as=3.3e+11p ps=2.66e+06u w=1e+06u l=150000u
X1 a_n33_n100# a_n63_n122# a_n125_n74# VSUBS sky130_fd_pr__nfet_01v8 ad=0p pd=0u as=3.048e+11p ps=2.62e+06u w=1e+06u l=150000u
.ends

.subckt inv_W2 sky130_fd_pr__pfet_01v8_AC5Z8B_0/w_n261_n210# Vout Vin VDD GND VSUBS
Xsky130_fd_pr__pfet_01v8_AC5Z8B_0 VDD Vout Vin VDD VDD Vout Vin GND VDD sky130_fd_pr__pfet_01v8_AC5Z8B_0/w_n261_n210#
+ VDD GND VSUBS sky130_fd_pr__pfet_01v8_AC5Z8B
Xsky130_fd_pr__nfet_01v8_XJTKXQ_0 Vin Vin GND GND Vout VSUBS sky130_fd_pr__nfet_01v8_XJTKXQ
.ends

.subckt sky130_fd_pr__nfet_01v8_7RYEVP a_n73_n69# a_n15_n89# a_15_n69# VSUBS
X0 a_15_n69# a_n15_n89# a_n73_n69# VSUBS sky130_fd_pr__nfet_01v8 ad=2.9e+11p pd=2.58e+06u as=2.9e+11p ps=2.58e+06u w=1e+06u l=150000u
.ends

.subckt nmos_1u sky130_fd_pr__nfet_01v8_7RYEVP_0/VSUBS sky130_fd_pr__nfet_01v8_7RYEVP_0/a_n15_n89#
+ sky130_fd_pr__nfet_01v8_7RYEVP_0/a_15_n69#
Xsky130_fd_pr__nfet_01v8_7RYEVP_0 sky130_fd_pr__nfet_01v8_7RYEVP_0/VSUBS sky130_fd_pr__nfet_01v8_7RYEVP_0/a_n15_n89#
+ sky130_fd_pr__nfet_01v8_7RYEVP_0/a_15_n69# sky130_fd_pr__nfet_01v8_7RYEVP_0/VSUBS
+ sky130_fd_pr__nfet_01v8_7RYEVP
.ends

.subckt pmos_2uf2 a_63_n100# a_33_n130# w_n317_n202# a_n33_n100# a_n63_n130# VSUBS
X0 a_63_n100# a_33_n130# a_n33_n100# w_n317_n202# sky130_fd_pr__pfet_01v8 ad=3.048e+11p pd=2.62e+06u as=3.3e+11p ps=2.66e+06u w=1e+06u l=150000u
X1 a_n33_n100# a_n63_n130# w_n317_n202# w_n317_n202# sky130_fd_pr__pfet_01v8 ad=0p pd=0u as=3.8e+11p ps=2.76e+06u w=1e+06u l=150000u
.ends

.subckt inv_W1 Vout Vin VDD GND
Xnmos_1u_0 GND Vin Vout nmos_1u
Xpmos_2uf2_0 VDD Vin VDD Vout Vin GND pmos_2uf2
.ends

.subckt buffer_1#0 inv_W2_0/VDD inv_W2_0/Vout inv_W1_0/Vin VSUBS
Xinv_W2_0 inv_W2_0/VDD inv_W2_0/Vout inv_W2_0/Vin inv_W2_0/VDD VSUBS VSUBS inv_W2
Xinv_W1_0 inv_W2_0/Vin inv_W1_0/Vin inv_W2_0/VDD VSUBS inv_W1
.ends

.subckt inv_W1#0 Vout Vin VDD GND
Xnmos_1u_0 GND Vin Vout nmos_1u
Xpmos_2uf2_0 VDD Vin VDD Vout Vin GND pmos_2uf2
.ends

.subckt buffer_1 inv_W2_0/Vout inv_W1_0/Vin VSUBS inv_W2_0/VDD
Xinv_W2_0 inv_W2_0/VDD inv_W2_0/Vout inv_W2_0/Vin inv_W2_0/VDD VSUBS VSUBS inv_W2
Xinv_W1_0 inv_W2_0/Vin inv_W1_0/Vin inv_W2_0/VDD VSUBS inv_W1#0
.ends

.subckt sky130_fd_pr__nfet_01v8_KZU588 a_159_n100# a_255_n100# a_351_n100# a_n129_n100#
+ a_63_n100# li_321_116# a_n353_n162# a_n225_n100# a_n413_n74# a_n321_n100# a_n33_n100#
+ VSUBS
X0 a_n321_n100# a_n353_n162# a_n413_n74# VSUBS sky130_fd_pr__nfet_01v8 ad=3.3e+11p pd=2.66e+06u as=3.048e+11p ps=2.62e+06u w=1e+06u l=150000u
X1 a_n225_n100# a_n353_n162# a_n321_n100# VSUBS sky130_fd_pr__nfet_01v8 ad=3.3e+11p pd=2.66e+06u as=0p ps=0u w=1e+06u l=150000u
X2 a_n129_n100# a_n353_n162# a_n225_n100# VSUBS sky130_fd_pr__nfet_01v8 ad=3.3e+11p pd=2.66e+06u as=0p ps=0u w=1e+06u l=150000u
X3 a_63_n100# a_n353_n162# a_n33_n100# VSUBS sky130_fd_pr__nfet_01v8 ad=3.3e+11p pd=2.66e+06u as=3.3e+11p ps=2.66e+06u w=1e+06u l=150000u
X4 a_n33_n100# a_n353_n162# a_n129_n100# VSUBS sky130_fd_pr__nfet_01v8 ad=0p pd=0u as=0p ps=0u w=1e+06u l=150000u
X5 a_351_n100# a_n353_n162# a_255_n100# VSUBS sky130_fd_pr__nfet_01v8 ad=3.048e+11p pd=2.62e+06u as=3.3e+11p ps=2.66e+06u w=1e+06u l=150000u
X6 a_159_n100# a_n353_n162# a_63_n100# VSUBS sky130_fd_pr__nfet_01v8 ad=3.3e+11p pd=2.66e+06u as=0p ps=0u w=1e+06u l=150000u
X7 a_255_n100# a_n353_n162# a_159_n100# VSUBS sky130_fd_pr__nfet_01v8 ad=0p pd=0u as=0p ps=0u w=1e+06u l=150000u
.ends

.subckt sky130_fd_pr__pfet_01v8_RL4NCG a_543_n100# a_159_n100# a_n609_n100# a_321_n126#
+ a_n705_n100# a_255_n100# a_n159_n128# a_n543_n128# a_n255_n126# a_351_n100# a_n417_n100#
+ a_33_n128# a_n129_n100# a_n513_n100# a_n351_n128# a_63_n100# w_n833_n200# a_n225_n100#
+ a_609_n128# a_n63_n126# a_n797_n74# a_705_n126# a_n321_n100# a_639_n100# a_417_n128#
+ a_n639_n126# a_735_n100# a_n33_n100# a_513_n126# a_129_n126# a_447_n100# a_n735_n128#
+ a_n447_n126# a_225_n128# VSUBS
X0 a_63_n100# a_33_n128# a_n33_n100# w_n833_n200# sky130_fd_pr__pfet_01v8 ad=3.3e+11p pd=2.66e+06u as=3.3e+11p ps=2.66e+06u w=1e+06u l=150000u
X1 a_n33_n100# a_n63_n126# a_n129_n100# w_n833_n200# sky130_fd_pr__pfet_01v8 ad=0p pd=0u as=3.3e+11p ps=2.66e+06u w=1e+06u l=150000u
X2 a_255_n100# a_225_n128# a_159_n100# w_n833_n200# sky130_fd_pr__pfet_01v8 ad=3.3e+11p pd=2.66e+06u as=3.3e+11p ps=2.66e+06u w=1e+06u l=150000u
X3 a_351_n100# a_321_n126# a_255_n100# w_n833_n200# sky130_fd_pr__pfet_01v8 ad=3.3e+11p pd=2.66e+06u as=0p ps=0u w=1e+06u l=150000u
X4 a_543_n100# a_513_n126# a_447_n100# w_n833_n200# sky130_fd_pr__pfet_01v8 ad=3.3e+11p pd=2.66e+06u as=3.3e+11p ps=2.66e+06u w=1e+06u l=150000u
X5 a_159_n100# a_129_n126# a_63_n100# w_n833_n200# sky130_fd_pr__pfet_01v8 ad=0p pd=0u as=0p ps=0u w=1e+06u l=150000u
X6 a_447_n100# a_417_n128# a_351_n100# w_n833_n200# sky130_fd_pr__pfet_01v8 ad=0p pd=0u as=0p ps=0u w=1e+06u l=150000u
X7 a_639_n100# a_609_n128# a_543_n100# w_n833_n200# sky130_fd_pr__pfet_01v8 ad=3.3e+11p pd=2.66e+06u as=0p ps=0u w=1e+06u l=150000u
X8 a_735_n100# a_705_n126# a_639_n100# w_n833_n200# sky130_fd_pr__pfet_01v8 ad=3.048e+11p pd=2.62e+06u as=0p ps=0u w=1e+06u l=150000u
X9 a_n513_n100# a_n543_n128# a_n609_n100# w_n833_n200# sky130_fd_pr__pfet_01v8 ad=3.3e+11p pd=2.66e+06u as=3.3e+11p ps=2.66e+06u w=1e+06u l=150000u
X10 a_n321_n100# a_n351_n128# a_n417_n100# w_n833_n200# sky130_fd_pr__pfet_01v8 ad=3.3e+11p pd=2.66e+06u as=3.3e+11p ps=2.66e+06u w=1e+06u l=150000u
X11 a_n225_n100# a_n255_n126# a_n321_n100# w_n833_n200# sky130_fd_pr__pfet_01v8 ad=3.3e+11p pd=2.66e+06u as=0p ps=0u w=1e+06u l=150000u
X12 a_n705_n100# a_n735_n128# a_n797_n74# w_n833_n200# sky130_fd_pr__pfet_01v8 ad=3.3e+11p pd=2.66e+06u as=3.048e+11p ps=2.62e+06u w=1e+06u l=150000u
X13 a_n609_n100# a_n639_n126# a_n705_n100# w_n833_n200# sky130_fd_pr__pfet_01v8 ad=0p pd=0u as=0p ps=0u w=1e+06u l=150000u
X14 a_n417_n100# a_n447_n126# a_n513_n100# w_n833_n200# sky130_fd_pr__pfet_01v8 ad=0p pd=0u as=0p ps=0u w=1e+06u l=150000u
X15 a_n129_n100# a_n159_n128# a_n225_n100# w_n833_n200# sky130_fd_pr__pfet_01v8 ad=0p pd=0u as=0p ps=0u w=1e+06u l=150000u
.ends

.subckt inv_W8 li_354_902# w_354_500# li_354_0# li_512_546# a_804_430# VSUBS
Xsky130_fd_pr__nfet_01v8_KZU588_0 li_354_0# li_512_546# li_354_0# li_512_546# li_512_546#
+ li_512_546# a_804_430# li_354_0# li_354_0# li_512_546# li_354_0# VSUBS sky130_fd_pr__nfet_01v8_KZU588
Xsky130_fd_pr__pfet_01v8_RL4NCG_0 li_354_902# li_354_902# li_354_902# a_804_430# li_512_546#
+ li_512_546# a_804_430# a_804_430# a_804_430# li_354_902# li_354_902# a_804_430#
+ li_512_546# li_512_546# a_804_430# li_512_546# w_354_500# li_354_902# a_804_430#
+ a_804_430# li_354_902# a_804_430# li_512_546# li_512_546# a_804_430# a_804_430#
+ li_354_902# li_354_902# a_804_430# a_804_430# li_512_546# a_804_430# a_804_430#
+ a_804_430# VSUBS sky130_fd_pr__pfet_01v8_RL4NCG
.ends

.subckt sky130_fd_pr__nfet_01v8_VJWT33 a_543_n100# a_159_n100# a_n609_n100# a_n705_n100#
+ a_255_n100# a_351_n100# a_n417_n100# a_n129_n100# a_n513_n100# a_63_n100# a_n225_n100#
+ a_n797_n74# a_n735_n176# a_n321_n100# a_639_n100# a_735_n100# a_n33_n100# a_447_n100#
+ VSUBS
X0 a_n513_n100# a_n735_n176# a_n609_n100# VSUBS sky130_fd_pr__nfet_01v8 ad=3.3e+11p pd=2.66e+06u as=3.3e+11p ps=2.66e+06u w=1e+06u l=150000u
X1 a_n321_n100# a_n735_n176# a_n417_n100# VSUBS sky130_fd_pr__nfet_01v8 ad=3.3e+11p pd=2.66e+06u as=3.3e+11p ps=2.66e+06u w=1e+06u l=150000u
X2 a_n225_n100# a_n735_n176# a_n321_n100# VSUBS sky130_fd_pr__nfet_01v8 ad=3.3e+11p pd=2.66e+06u as=0p ps=0u w=1e+06u l=150000u
X3 a_n705_n100# a_n735_n176# a_n797_n74# VSUBS sky130_fd_pr__nfet_01v8 ad=3.3e+11p pd=2.66e+06u as=3.048e+11p ps=2.62e+06u w=1e+06u l=150000u
X4 a_n609_n100# a_n735_n176# a_n705_n100# VSUBS sky130_fd_pr__nfet_01v8 ad=0p pd=0u as=0p ps=0u w=1e+06u l=150000u
X5 a_n417_n100# a_n735_n176# a_n513_n100# VSUBS sky130_fd_pr__nfet_01v8 ad=0p pd=0u as=0p ps=0u w=1e+06u l=150000u
X6 a_n129_n100# a_n735_n176# a_n225_n100# VSUBS sky130_fd_pr__nfet_01v8 ad=3.3e+11p pd=2.66e+06u as=0p ps=0u w=1e+06u l=150000u
X7 a_63_n100# a_n735_n176# a_n33_n100# VSUBS sky130_fd_pr__nfet_01v8 ad=3.3e+11p pd=2.66e+06u as=3.3e+11p ps=2.66e+06u w=1e+06u l=150000u
X8 a_n33_n100# a_n735_n176# a_n129_n100# VSUBS sky130_fd_pr__nfet_01v8 ad=0p pd=0u as=0p ps=0u w=1e+06u l=150000u
X9 a_351_n100# a_n735_n176# a_255_n100# VSUBS sky130_fd_pr__nfet_01v8 ad=3.3e+11p pd=2.66e+06u as=3.3e+11p ps=2.66e+06u w=1e+06u l=150000u
X10 a_159_n100# a_n735_n176# a_63_n100# VSUBS sky130_fd_pr__nfet_01v8 ad=3.3e+11p pd=2.66e+06u as=0p ps=0u w=1e+06u l=150000u
X11 a_255_n100# a_n735_n176# a_159_n100# VSUBS sky130_fd_pr__nfet_01v8 ad=0p pd=0u as=0p ps=0u w=1e+06u l=150000u
X12 a_447_n100# a_n735_n176# a_351_n100# VSUBS sky130_fd_pr__nfet_01v8 ad=3.3e+11p pd=2.66e+06u as=0p ps=0u w=1e+06u l=150000u
X13 a_543_n100# a_n735_n176# a_447_n100# VSUBS sky130_fd_pr__nfet_01v8 ad=3.3e+11p pd=2.66e+06u as=0p ps=0u w=1e+06u l=150000u
X14 a_639_n100# a_n735_n176# a_543_n100# VSUBS sky130_fd_pr__nfet_01v8 ad=3.3e+11p pd=2.66e+06u as=0p ps=0u w=1e+06u l=150000u
X15 a_735_n100# a_n735_n176# a_639_n100# VSUBS sky130_fd_pr__nfet_01v8 ad=3.048e+11p pd=2.62e+06u as=0p ps=0u w=1e+06u l=150000u
.ends

.subckt sky130_fd_pr__pfet_01v8_3M44SC a_543_n100# a_159_n100# a_n609_n100# a_321_n126#
+ a_1473_n126# a_1089_n126# a_n1407_n126# a_n705_n100# a_255_n100# a_n159_n128# a_n543_n128#
+ a_1407_n100# a_1185_n128# a_n255_n126# a_351_n100# a_n417_n100# a_n801_n100# a_n1119_n128#
+ a_n1503_n128# a_1281_n126# a_897_n126# a_33_n128# w_n1601_n200# a_1503_n100# a_1119_n100#
+ a_n1377_n100# a_n1215_n126# a_n129_n100# a_n513_n100# a_n351_n128# a_n1565_n74#
+ a_1215_n100# a_63_n100# a_n1089_n100# a_n1473_n100# a_993_n128# a_n225_n100# a_609_n128#
+ a_n63_n126# a_n1311_n128# a_1311_n100# a_927_n100# a_n1185_n100# a_705_n126# a_n1023_n126#
+ a_n321_n100# a_1023_n100# a_639_n100# a_n1281_n100# a_n927_n128# a_801_n128# a_417_n128#
+ a_n639_n126# a_735_n100# a_n33_n100# a_513_n126# a_129_n126# a_n897_n100# a_831_n100#
+ a_447_n100# a_n735_n128# a_n993_n100# a_n447_n126# a_n831_n126# a_1377_n128# a_225_n128#
+ VSUBS
X0 a_63_n100# a_33_n128# a_n33_n100# w_n1601_n200# sky130_fd_pr__pfet_01v8 ad=3.3e+11p pd=2.66e+06u as=3.3e+11p ps=2.66e+06u w=1e+06u l=150000u
X1 a_927_n100# a_897_n126# a_831_n100# w_n1601_n200# sky130_fd_pr__pfet_01v8 ad=3.3e+11p pd=2.66e+06u as=3.3e+11p ps=2.66e+06u w=1e+06u l=150000u
X2 a_1023_n100# a_993_n128# a_927_n100# w_n1601_n200# sky130_fd_pr__pfet_01v8 ad=3.3e+11p pd=2.66e+06u as=0p ps=0u w=1e+06u l=150000u
X3 a_1311_n100# a_1281_n126# a_1215_n100# w_n1601_n200# sky130_fd_pr__pfet_01v8 ad=3.3e+11p pd=2.66e+06u as=3.3e+11p ps=2.66e+06u w=1e+06u l=150000u
X4 a_1119_n100# a_1089_n126# a_1023_n100# w_n1601_n200# sky130_fd_pr__pfet_01v8 ad=3.3e+11p pd=2.66e+06u as=0p ps=0u w=1e+06u l=150000u
X5 a_1215_n100# a_1185_n128# a_1119_n100# w_n1601_n200# sky130_fd_pr__pfet_01v8 ad=0p pd=0u as=0p ps=0u w=1e+06u l=150000u
X6 a_1407_n100# a_1377_n128# a_1311_n100# w_n1601_n200# sky130_fd_pr__pfet_01v8 ad=3.3e+11p pd=2.66e+06u as=0p ps=0u w=1e+06u l=150000u
X7 a_1503_n100# a_1473_n126# a_1407_n100# w_n1601_n200# sky130_fd_pr__pfet_01v8 ad=3.048e+11p pd=2.62e+06u as=0p ps=0u w=1e+06u l=150000u
X8 a_n33_n100# a_n63_n126# a_n129_n100# w_n1601_n200# sky130_fd_pr__pfet_01v8 ad=0p pd=0u as=3.3e+11p ps=2.66e+06u w=1e+06u l=150000u
X9 a_255_n100# a_225_n128# a_159_n100# w_n1601_n200# sky130_fd_pr__pfet_01v8 ad=3.3e+11p pd=2.66e+06u as=3.3e+11p ps=2.66e+06u w=1e+06u l=150000u
X10 a_351_n100# a_321_n126# a_255_n100# w_n1601_n200# sky130_fd_pr__pfet_01v8 ad=3.3e+11p pd=2.66e+06u as=0p ps=0u w=1e+06u l=150000u
X11 a_543_n100# a_513_n126# a_447_n100# w_n1601_n200# sky130_fd_pr__pfet_01v8 ad=3.3e+11p pd=2.66e+06u as=3.3e+11p ps=2.66e+06u w=1e+06u l=150000u
X12 a_831_n100# a_801_n128# a_735_n100# w_n1601_n200# sky130_fd_pr__pfet_01v8 ad=0p pd=0u as=3.3e+11p ps=2.66e+06u w=1e+06u l=150000u
X13 a_159_n100# a_129_n126# a_63_n100# w_n1601_n200# sky130_fd_pr__pfet_01v8 ad=0p pd=0u as=0p ps=0u w=1e+06u l=150000u
X14 a_447_n100# a_417_n128# a_351_n100# w_n1601_n200# sky130_fd_pr__pfet_01v8 ad=0p pd=0u as=0p ps=0u w=1e+06u l=150000u
X15 a_639_n100# a_609_n128# a_543_n100# w_n1601_n200# sky130_fd_pr__pfet_01v8 ad=3.3e+11p pd=2.66e+06u as=0p ps=0u w=1e+06u l=150000u
X16 a_735_n100# a_705_n126# a_639_n100# w_n1601_n200# sky130_fd_pr__pfet_01v8 ad=0p pd=0u as=0p ps=0u w=1e+06u l=150000u
X17 a_n1281_n100# a_n1311_n128# a_n1377_n100# w_n1601_n200# sky130_fd_pr__pfet_01v8 ad=3.3e+11p pd=2.66e+06u as=3.3e+11p ps=2.66e+06u w=1e+06u l=150000u
X18 a_n993_n100# a_n1023_n126# a_n1089_n100# w_n1601_n200# sky130_fd_pr__pfet_01v8 ad=3.3e+11p pd=2.66e+06u as=3.3e+11p ps=2.66e+06u w=1e+06u l=150000u
X19 a_n1473_n100# a_n1503_n128# a_n1565_n74# w_n1601_n200# sky130_fd_pr__pfet_01v8 ad=3.3e+11p pd=2.66e+06u as=3.048e+11p ps=2.62e+06u w=1e+06u l=150000u
X20 a_n1377_n100# a_n1407_n126# a_n1473_n100# w_n1601_n200# sky130_fd_pr__pfet_01v8 ad=0p pd=0u as=0p ps=0u w=1e+06u l=150000u
X21 a_n1185_n100# a_n1215_n126# a_n1281_n100# w_n1601_n200# sky130_fd_pr__pfet_01v8 ad=3.3e+11p pd=2.66e+06u as=0p ps=0u w=1e+06u l=150000u
X22 a_n1089_n100# a_n1119_n128# a_n1185_n100# w_n1601_n200# sky130_fd_pr__pfet_01v8 ad=0p pd=0u as=0p ps=0u w=1e+06u l=150000u
X23 a_n801_n100# a_n831_n126# a_n897_n100# w_n1601_n200# sky130_fd_pr__pfet_01v8 ad=3.3e+11p pd=2.66e+06u as=3.3e+11p ps=2.66e+06u w=1e+06u l=150000u
X24 a_n513_n100# a_n543_n128# a_n609_n100# w_n1601_n200# sky130_fd_pr__pfet_01v8 ad=3.3e+11p pd=2.66e+06u as=3.3e+11p ps=2.66e+06u w=1e+06u l=150000u
X25 a_n321_n100# a_n351_n128# a_n417_n100# w_n1601_n200# sky130_fd_pr__pfet_01v8 ad=3.3e+11p pd=2.66e+06u as=3.3e+11p ps=2.66e+06u w=1e+06u l=150000u
X26 a_n225_n100# a_n255_n126# a_n321_n100# w_n1601_n200# sky130_fd_pr__pfet_01v8 ad=3.3e+11p pd=2.66e+06u as=0p ps=0u w=1e+06u l=150000u
X27 a_n897_n100# a_n927_n128# a_n993_n100# w_n1601_n200# sky130_fd_pr__pfet_01v8 ad=0p pd=0u as=0p ps=0u w=1e+06u l=150000u
X28 a_n705_n100# a_n735_n128# a_n801_n100# w_n1601_n200# sky130_fd_pr__pfet_01v8 ad=3.3e+11p pd=2.66e+06u as=0p ps=0u w=1e+06u l=150000u
X29 a_n609_n100# a_n639_n126# a_n705_n100# w_n1601_n200# sky130_fd_pr__pfet_01v8 ad=0p pd=0u as=0p ps=0u w=1e+06u l=150000u
X30 a_n417_n100# a_n447_n126# a_n513_n100# w_n1601_n200# sky130_fd_pr__pfet_01v8 ad=0p pd=0u as=0p ps=0u w=1e+06u l=150000u
X31 a_n129_n100# a_n159_n128# a_n225_n100# w_n1601_n200# sky130_fd_pr__pfet_01v8 ad=0p pd=0u as=0p ps=0u w=1e+06u l=150000u

.ends

.subckt inv_W16 li_128_546# li_n14_902# a_82_816# w_82_814# li_n14_0# VSUBS
Xsky130_fd_pr__nfet_01v8_VJWT33_0 li_n14_0# li_n14_0# li_n14_0# li_128_546# li_128_546#
+ li_n14_0# li_n14_0# li_128_546# li_128_546# li_128_546# li_n14_0# li_n14_0# a_82_816#
+ li_128_546# li_128_546# li_n14_0# li_n14_0# li_128_546# VSUBS sky130_fd_pr__nfet_01v8_VJWT33
Xsky130_fd_pr__pfet_01v8_3M44SC_0 li_n14_902# li_n14_902# li_n14_902# a_82_816# a_82_816#
+ a_82_816# a_82_816# li_128_546# li_128_546# a_82_816# a_82_816# li_128_546# a_82_816#
+ a_82_816# li_n14_902# li_n14_902# li_n14_902# a_82_816# a_82_816# a_82_816# a_82_816#
+ a_82_816# w_82_814# li_n14_902# li_n14_902# li_n14_902# a_82_816# li_128_546# li_128_546#
+ a_82_816# li_n14_902# li_128_546# li_128_546# li_128_546# li_128_546# a_82_816#
+ li_n14_902# a_82_816# a_82_816# a_82_816# li_n14_902# li_n14_902# li_n14_902# a_82_816#
+ a_82_816# li_128_546# li_128_546# li_128_546# li_128_546# a_82_816# a_82_816# a_82_816#
+ a_82_816# li_n14_902# li_n14_902# a_82_816# a_82_816# li_128_546# li_128_546# li_128_546#
+ a_82_816# li_n14_902# a_82_816# a_82_816# a_82_816# a_82_816# VSUBS sky130_fd_pr__pfet_01v8_3M44SC

.ends

.subckt buffer_2 Vout inv_W8_0/li_354_902# w_1666_500# inv_W8_0/a_804_430# inv_W8_0/li_354_0#
+ VSUBS
Xinv_W8_0 inv_W8_0/li_354_902# w_1666_500# inv_W8_0/li_354_0# inv_W16_0/a_82_816#
+ inv_W8_0/a_804_430# VSUBS inv_W8
Xinv_W16_0 Vout inv_W8_0/li_354_902# inv_W16_0/a_82_816# w_1666_500# inv_W8_0/li_354_0#
+ VSUBS inv_W16

.ends

.subckt buffer_12 buf_out buf_in VDD GND
Xbuffer_1_0 buffer_1_0/inv_W2_0/Vout buf_in GND VDD buffer_1
Xbuffer_2_0 buf_out VDD VDD buffer_1_0/inv_W2_0/Vout GND GND buffer_2

.ends

.subckt sky130_fd_pr__nfet_01v8_G6PLX8 a_159_n100# li_n945_n316# a_n221_n74# a_n129_n100#
+ a_63_n100# a_n159_n156# a_n33_n100# VSUBS
X0 a_n129_n100# a_n159_n156# a_n221_n74# VSUBS sky130_fd_pr__nfet_01v8 ad=3.3e+11p pd=2.66e+06u as=3.048e+11p ps=2.62e+06u w=1e+06u l=150000u
X1 a_63_n100# a_n159_n156# a_n33_n100# VSUBS sky130_fd_pr__nfet_01v8 ad=3.3e+11p pd=2.66e+06u as=3.3e+11p ps=2.66e+06u w=1e+06u l=150000u
X2 a_n33_n100# a_n159_n156# a_n129_n100# VSUBS sky130_fd_pr__nfet_01v8 ad=0p pd=0u as=0p ps=0u w=1e+06u l=150000u
X3 a_159_n100# a_n159_n156# a_63_n100# VSUBS sky130_fd_pr__nfet_01v8 ad=3.048e+11p pd=2.62e+06u as=0p ps=0u w=1e+06u l=150000u
.ends

.subckt sky130_fd_pr__nfet_01v8_NHLLAS a_n63_n153# a_n129_n133# a_63_n133# a_129_n153#
+ a_n221_n96# a_n33_n133# a_n159_n153# a_159_n133# a_33_n153# VSUBS
X0 a_159_n133# a_129_n153# a_63_n133# VSUBS sky130_fd_pr__nfet_01v8 ad=4.049e+11p pd=3.28e+06u as=4.389e+11p ps=3.32e+06u w=1.33e+06u l=150000u
X1 a_63_n133# a_33_n153# a_n33_n133# VSUBS sky130_fd_pr__nfet_01v8 ad=0p pd=0u as=4.389e+11p ps=3.32e+06u w=1.33e+06u l=150000u
X2 a_n129_n133# a_n159_n153# a_n221_n96# VSUBS sky130_fd_pr__nfet_01v8 ad=4.389e+11p pd=3.32e+06u as=4.049e+11p ps=3.28e+06u w=1.33e+06u l=150000u
X3 a_n33_n133# a_n63_n153# a_n129_n133# VSUBS sky130_fd_pr__nfet_01v8 ad=0p pd=0u as=0p ps=0u w=1.33e+06u l=150000u
.ends

.subckt preamp_part1SA m1_n694_236# a_n734_300# li_126_310# m1_924_192# a_80_354#
+ a_976_302# a_n302_940# w_n720_482# a_506_940# li_318_312# li_n66_312# VSUBS
Xsky130_fd_pr__nfet_01v8_G6PLX8_0 li_318_312# li_n24_n74# li_n66_312# li_n24_n74#
+ li_n24_n74# a_80_354# li_126_310# VSUBS sky130_fd_pr__nfet_01v8_G6PLX8
Xsky130_fd_pr__nfet_01v8_NHLLAS_0 a_n734_300# m1_n694_236# m1_n694_236# a_n734_300#
+ li_n24_n74# li_n24_n74# a_n734_300# li_n24_n74# a_n734_300# VSUBS sky130_fd_pr__nfet_01v8_NHLLAS
Xsky130_fd_pr__nfet_01v8_NHLLAS_1 a_976_302# m1_924_192# m1_924_192# a_976_302# li_n24_n74#
+ li_n24_n74# a_976_302# li_n24_n74# a_976_302# VSUBS sky130_fd_pr__nfet_01v8_NHLLAS

.ends

.subckt sky130_fd_pr__pfet_01v8_5233FE a_n15_n76# w_n109_n112# a_n73_n50# a_15_n50#
+ VSUBS
X0 a_15_n50# a_n15_n76# a_n73_n50# w_n109_n112# sky130_fd_pr__pfet_01v8 ad=1.45e+11p pd=1.58e+06u as=1.45e+11p ps=1.58e+06u w=500000u l=150000u
.ends

.subckt sky130_fd_pr__nfet_01v8_F5U58G a_n73_n100# a_15_n100# a_n15_n126# VSUBS
X0 a_15_n100# a_n15_n126# a_n73_n100# VSUBS sky130_fd_pr__nfet_01v8 ad=2.9e+11p pd=2.58e+06u as=2.9e+11p ps=2.58e+06u w=1e+06u l=150000u
.ends

.subckt sky130_fd_pr__pfet_01v8_AC5E9B w_n161_n200# a_33_n126# a_63_n100# a_n125_n74#
+ a_n33_n100# a_n63_n130# VSUBS
X0 a_63_n100# a_33_n126# a_n33_n100# w_n161_n200# sky130_fd_pr__pfet_01v8 ad=3.048e+11p pd=2.62e+06u as=3.3e+11p ps=2.66e+06u w=1e+06u l=150000u
X1 a_n33_n100# a_n63_n130# a_n125_n74# w_n161_n200# sky130_fd_pr__pfet_01v8 ad=0p pd=0u as=3.048e+11p ps=2.62e+06u w=1e+06u l=150000u
.ends

.subckt SR_latch a_648_848# sky130_fd_pr__nfet_01v8_F5U58G_1/a_n15_n126# sky130_fd_pr__nfet_01v8_F5U58G_0/a_n15_n126#
+ a_262_508# VDD w_0_524# GND VSUBS
Xsky130_fd_pr__nfet_01v8_F5U58G_0 a_648_848# GND sky130_fd_pr__nfet_01v8_F5U58G_0/a_n15_n126#
+ VSUBS sky130_fd_pr__nfet_01v8_F5U58G
Xsky130_fd_pr__nfet_01v8_F5U58G_1 GND a_262_508# sky130_fd_pr__nfet_01v8_F5U58G_1/a_n15_n126#
+ VSUBS sky130_fd_pr__nfet_01v8_F5U58G
Xsky130_fd_pr__pfet_01v8_AC5E9B_0 w_0_524# a_262_508# VDD VDD a_648_848# a_262_508#
+ VSUBS sky130_fd_pr__pfet_01v8_AC5E9B
Xsky130_fd_pr__pfet_01v8_AC5E9B_1 w_0_524# a_648_848# VDD VDD a_262_508# a_648_848#
+ VSUBS sky130_fd_pr__pfet_01v8_AC5E9B
.ends

.subckt sky130_fd_pr__pfet_01v8_5C3Z5B a_15_n78# a_n15_n104# a_n73_n78# w_n109_n140#
+ VSUBS
X0 a_15_n78# a_n15_n104# a_n73_n78# w_n109_n140# sky130_fd_pr__pfet_01v8 ad=2.262e+11p pd=2.14e+06u as=2.262e+11p ps=2.14e+06u w=780000u l=150000u
.ends

.subckt sky130_fd_pr__nfet_01v8_KBWVY9 a_15_n78# a_n15_n104# a_n73_n78# VSUBS
X0 a_15_n78# a_n15_n104# a_n73_n78# VSUBS sky130_fd_pr__nfet_01v8 ad=2.262e+11p pd=2.14e+06u as=2.262e+11p ps=2.14e+06u w=780000u l=150000u
.ends

.subckt inv_W22 li_200_260# sky130_fd_pr__nfet_01v8_KBWVY9_0/a_n73_n78# sky130_fd_pr__pfet_01v8_5C3Z5B_0/w_n109_n140#
+ Vin VDD sky130_fd_pr__pfet_01v8_5C3Z5B_0/a_15_n78# VSUBS
Xsky130_fd_pr__pfet_01v8_5C3Z5B_0 sky130_fd_pr__pfet_01v8_5C3Z5B_0/a_15_n78# Vin VDD
+ sky130_fd_pr__pfet_01v8_5C3Z5B_0/w_n109_n140# VSUBS sky130_fd_pr__pfet_01v8_5C3Z5B
Xsky130_fd_pr__nfet_01v8_KBWVY9_0 li_200_260# Vin sky130_fd_pr__nfet_01v8_KBWVY9_0/a_n73_n78#
+ VSUBS sky130_fd_pr__nfet_01v8_KBWVY9
.ends

.subckt latch_2SA inv_W22_0/sky130_fd_pr__pfet_01v8_5C3Z5B_0/a_15_n78# w_0_516# inv_W22_0/Vin
+ inv_W22_1/li_200_260# inv_W22_1/sky130_fd_pr__nfet_01v8_KBWVY9_0/a_n73_n78# inv_W22_0/sky130_fd_pr__nfet_01v8_KBWVY9_0/a_n73_n78#
+ inv_W22_0/li_200_260# inv_W22_1/Vin inv_W22_1/VDD inv_W22_1/sky130_fd_pr__pfet_01v8_5C3Z5B_0/a_15_n78#
+ VSUBS
Xinv_W22_0 inv_W22_0/li_200_260# inv_W22_0/sky130_fd_pr__nfet_01v8_KBWVY9_0/a_n73_n78#
+ w_0_516# inv_W22_0/Vin inv_W22_1/VDD inv_W22_0/sky130_fd_pr__pfet_01v8_5C3Z5B_0/a_15_n78#
+ VSUBS inv_W22
Xinv_W22_1 inv_W22_1/li_200_260# inv_W22_1/sky130_fd_pr__nfet_01v8_KBWVY9_0/a_n73_n78#
+ w_0_516# inv_W22_1/Vin inv_W22_1/VDD inv_W22_1/sky130_fd_pr__pfet_01v8_5C3Z5B_0/a_15_n78#
+ VSUBS inv_W22
.ends

.subckt comparator_SA Outn Vp Vn CLK VDD GND Outp
Xpreamp_part1SA_0 fn Vn GND fp CLK Vp CLK VDD CLK GND GND GND preamp_part1SA
Xsky130_fd_pr__pfet_01v8_5233FE_0 CLK VDD VDD fn GND sky130_fd_pr__pfet_01v8_5233FE
Xsky130_fd_pr__pfet_01v8_5233FE_1 CLK VDD fp VDD GND sky130_fd_pr__pfet_01v8_5233FE
Xsky130_fd_pr__pfet_01v8_5233FE_2 CLK VDD VDD Dn GND sky130_fd_pr__pfet_01v8_5233FE
Xsky130_fd_pr__pfet_01v8_5233FE_3 CLK VDD VDD Dp GND sky130_fd_pr__pfet_01v8_5233FE
XSR_latch_0 Outp Ln Lp Outn VDD VDD GND GND SR_latch
Xinv_W1_0 Lp Dp VDD GND inv_W1
Xinv_W1_1 Ln Dn VDD GND inv_W1
Xlatch_2SA_0 Dn VDD Dp Dp fp fn Dn Dn VDD Dp GND latch_2SA

.ends

.subckt buffer_2#0 Vout w_1666_500# inv_W8_0/li_354_902# inv_W8_0/a_804_430# inv_W8_0/li_354_0#
+ VSUBS
Xinv_W8_0 inv_W8_0/li_354_902# w_1666_500# inv_W8_0/li_354_0# inv_W16_0/a_82_816#
+ inv_W8_0/a_804_430# VSUBS inv_W8
Xinv_W16_0 Vout inv_W8_0/li_354_902# inv_W16_0/a_82_816# w_1666_500# inv_W8_0/li_354_0#
+ VSUBS inv_W16

.ends

.subckt buffer_2#1 Vout w_1666_500# inv_W8_0/li_354_902# inv_W8_0/a_804_430# inv_W8_0/li_354_0#
+ VSUBS
Xinv_W8_0 inv_W8_0/li_354_902# w_1666_500# inv_W8_0/li_354_0# inv_W16_0/a_82_816#
+ inv_W8_0/a_804_430# VSUBS inv_W8
Xinv_W16_0 Vout inv_W8_0/li_354_902# inv_W16_0/a_82_816# w_1666_500# inv_W8_0/li_354_0#
+ VSUBS inv_W16

.ends

.subckt user_analog_project_wrapper gpio_analog[0] gpio_analog[10] gpio_analog[11]
+ gpio_analog[12] gpio_analog[13] gpio_analog[14] gpio_analog[15] gpio_analog[16]
+ gpio_analog[17] gpio_analog[1] gpio_analog[2] gpio_analog[3] gpio_analog[4] gpio_analog[5]
+ gpio_analog[6] gpio_analog[7] gpio_analog[8] gpio_analog[9] gpio_noesd[0] gpio_noesd[10]
+ gpio_noesd[11] gpio_noesd[12] gpio_noesd[13] gpio_noesd[14] gpio_noesd[15] gpio_noesd[16]
+ gpio_noesd[17] gpio_noesd[1] gpio_noesd[2] gpio_noesd[3] gpio_noesd[4] gpio_noesd[5]
+ gpio_noesd[6] gpio_noesd[7] gpio_noesd[8] gpio_noesd[9] io_analog[0] io_analog[10]
+ io_analog[1] io_analog[2] io_analog[3] io_analog[5] io_analog[6] io_analog[7] io_analog[8]
+ io_analog[9] io_analog[4] io_clamp_high[0] io_clamp_high[1] io_clamp_high[2] io_clamp_low[0]
+ io_clamp_low[1] io_clamp_low[2] io_in[0] io_in[10] io_in[11] io_in[12] io_in[13]
+ io_in[14] io_in[15] io_in[16] io_in[17] io_in[18] io_in[19] io_in[1] io_in[20] io_in[21]
+ io_in[22] io_in[23] io_in[24] io_in[25] io_in[26] io_in[2] io_in[3] io_in[4] io_in[5]
+ io_in[6] io_in[7] io_in[8] io_in[9] io_in_3v3[0] io_in_3v3[10] io_in_3v3[11] io_in_3v3[12]
+ io_in_3v3[13] io_in_3v3[14] io_in_3v3[15] io_in_3v3[16] io_in_3v3[17] io_in_3v3[18]
+ io_in_3v3[19] io_in_3v3[1] io_in_3v3[20] io_in_3v3[21] io_in_3v3[22] io_in_3v3[23]
+ io_in_3v3[24] io_in_3v3[25] io_in_3v3[26] io_in_3v3[2] io_in_3v3[3] io_in_3v3[4]
+ io_in_3v3[5] io_in_3v3[6] io_in_3v3[7] io_in_3v3[8] io_in_3v3[9] io_oeb[0] io_oeb[10]
+ io_oeb[11] io_oeb[12] io_oeb[13] io_oeb[14] io_oeb[15] io_oeb[16] io_oeb[17] io_oeb[18]
+ io_oeb[19] io_oeb[1] io_oeb[20] io_oeb[21] io_oeb[22] io_oeb[23] io_oeb[24] io_oeb[25]
+ io_oeb[26] io_oeb[2] io_oeb[3] io_oeb[4] io_oeb[5] io_oeb[6] io_oeb[7] io_oeb[8]
+ io_oeb[9] io_out[0] io_out[10] io_out[11] io_out[12] io_out[13] io_out[14] io_out[15]
+ io_out[16] io_out[17] io_out[18] io_out[19] io_out[1] io_out[20] io_out[21] io_out[22]
+ io_out[23] io_out[24] io_out[25] io_out[26] io_out[2] io_out[3] io_out[4] io_out[5]
+ io_out[6] io_out[7] io_out[8] io_out[9] la_data_in[0] la_data_in[100] la_data_in[101]
+ la_data_in[102] la_data_in[103] la_data_in[104] la_data_in[105] la_data_in[106]
+ la_data_in[107] la_data_in[108] la_data_in[109] la_data_in[10] la_data_in[110] la_data_in[111]
+ la_data_in[112] la_data_in[113] la_data_in[114] la_data_in[115] la_data_in[116]
+ la_data_in[117] la_data_in[118] la_data_in[119] la_data_in[11] la_data_in[120] la_data_in[121]
+ la_data_in[122] la_data_in[123] la_data_in[124] la_data_in[125] la_data_in[126]
+ la_data_in[127] la_data_in[12] la_data_in[13] la_data_in[14] la_data_in[15] la_data_in[16]
+ la_data_in[17] la_data_in[18] la_data_in[19] la_data_in[1] la_data_in[20] la_data_in[21]
+ la_data_in[22] la_data_in[23] la_data_in[24] la_data_in[25] la_data_in[26] la_data_in[27]
+ la_data_in[28] la_data_in[29] la_data_in[2] la_data_in[30] la_data_in[31] la_data_in[32]
+ la_data_in[33] la_data_in[34] la_data_in[35] la_data_in[36] la_data_in[37] la_data_in[38]
+ la_data_in[39] la_data_in[3] la_data_in[40] la_data_in[41] la_data_in[42] la_data_in[43]
+ la_data_in[44] la_data_in[45] la_data_in[46] la_data_in[47] la_data_in[48] la_data_in[49]
+ la_data_in[4] la_data_in[50] la_data_in[51] la_data_in[52] la_data_in[53] la_data_in[54]
+ la_data_in[55] la_data_in[56] la_data_in[57] la_data_in[58] la_data_in[59] la_data_in[5]
+ la_data_in[60] la_data_in[61] la_data_in[62] la_data_in[63] la_data_in[64] la_data_in[65]
+ la_data_in[66] la_data_in[67] la_data_in[68] la_data_in[69] la_data_in[6] la_data_in[70]
+ la_data_in[71] la_data_in[72] la_data_in[73] la_data_in[74] la_data_in[75] la_data_in[76]
+ la_data_in[77] la_data_in[78] la_data_in[79] la_data_in[7] la_data_in[80] la_data_in[81]
+ la_data_in[82] la_data_in[83] la_data_in[84] la_data_in[85] la_data_in[86] la_data_in[87]
+ la_data_in[88] la_data_in[89] la_data_in[8] la_data_in[90] la_data_in[91] la_data_in[92]
+ la_data_in[93] la_data_in[94] la_data_in[95] la_data_in[96] la_data_in[97] la_data_in[98]
+ la_data_in[99] la_data_in[9] la_data_out[0] la_data_out[100] la_data_out[101] la_data_out[102]
+ la_data_out[103] la_data_out[104] la_data_out[105] la_data_out[106] la_data_out[107]
+ la_data_out[108] la_data_out[109] la_data_out[10] la_data_out[110] la_data_out[111]
+ la_data_out[112] la_data_out[113] la_data_out[114] la_data_out[115] la_data_out[116]
+ la_data_out[117] la_data_out[118] la_data_out[119] la_data_out[11] la_data_out[120]
+ la_data_out[121] la_data_out[122] la_data_out[123] la_data_out[124] la_data_out[125]
+ la_data_out[126] la_data_out[127] la_data_out[12] la_data_out[13] la_data_out[14]
+ la_data_out[15] la_data_out[16] la_data_out[17] la_data_out[18] la_data_out[19]
+ la_data_out[1] la_data_out[20] la_data_out[21] la_data_out[22] la_data_out[23] la_data_out[24]
+ la_data_out[25] la_data_out[26] la_data_out[27] la_data_out[28] la_data_out[29]
+ la_data_out[2] la_data_out[30] la_data_out[31] la_data_out[32] la_data_out[33] la_data_out[34]
+ la_data_out[35] la_data_out[36] la_data_out[37] la_data_out[38] la_data_out[39]
+ la_data_out[3] la_data_out[40] la_data_out[41] la_data_out[42] la_data_out[43] la_data_out[44]
+ la_data_out[45] la_data_out[46] la_data_out[47] la_data_out[48] la_data_out[49]
+ la_data_out[4] la_data_out[50] la_data_out[51] la_data_out[52] la_data_out[53] la_data_out[54]
+ la_data_out[55] la_data_out[56] la_data_out[57] la_data_out[58] la_data_out[59]
+ la_data_out[5] la_data_out[60] la_data_out[61] la_data_out[62] la_data_out[63] la_data_out[64]
+ la_data_out[65] la_data_out[66] la_data_out[67] la_data_out[68] la_data_out[69]
+ la_data_out[6] la_data_out[70] la_data_out[71] la_data_out[72] la_data_out[73] la_data_out[74]
+ la_data_out[75] la_data_out[76] la_data_out[77] la_data_out[78] la_data_out[79]
+ la_data_out[7] la_data_out[80] la_data_out[81] la_data_out[82] la_data_out[83] la_data_out[84]
+ la_data_out[85] la_data_out[86] la_data_out[87] la_data_out[88] la_data_out[89]
+ la_data_out[8] la_data_out[90] la_data_out[91] la_data_out[92] la_data_out[93] la_data_out[94]
+ la_data_out[95] la_data_out[96] la_data_out[97] la_data_out[98] la_data_out[99]
+ la_data_out[9] la_oenb[0] la_oenb[100] la_oenb[101] la_oenb[102] la_oenb[103] la_oenb[104]